FoamFile
{
    version     2.0;
    format      ascii;
    class       volScalarField;
    object      nuTilda;
}

dimensions      [0 2 -1 0 0 0 0];

internalField   uniform 2e-06;

boundaryField
{
    inlet
    {
        type            freestream;
        freestreamValue uniform 2e-06;
    }

    outlet
    {
        type            freestream;
        freestreamValue uniform 2e-06;
    }

    walls
    {
        type            fixedValue;
        value           uniform 0;
    }

    airfoil
    {
        type            fixedValue;
        value           uniform 0;
    }
    
    floor
    {
        type            fixedValue;
        value           uniform 0;
    }

    frontAndBack
    {
        type            empty;
    }
}

